&CORE
 IPRE=          0,
 IBC=          1,
 IBTP=          0,
 NTRACER_GEN=          2,
 NTRACER_AGE=          4,
 SED_CLASS=          5,
 ECO_CLASS=         27,
 NSPOOL=         10,
 IHFSKIP=       1080,
 MSC2=         36,
 MDC2=         24,
 DT=  5.0000000000000000     ,
 RNDAY=  2.0000000000000000E-003,
 /
&OPT
 GEN_WSETT=  1.0000000000000000E-004,
 FLAG_FIB=          1,
 ICS=          1,
 REARTH_POLE=  6378206.4000000004     ,
 REARTH_EQ=  6378206.4000000004     ,
 INDVEL=          1,
 IMM=          0,
 IBDEF=         10,
 IHOT=          0,
 IHYDRAULICS=          0,
 IZONAL5=          0,
 SLAM0= -124.00000000000000     ,
 SFEA0=  45.000000000000000     ,
 IUPWIND_MOM=          0,
 IHORCON=          0,
 HVIS_COEF0=  2.5000000000000001E-002,
 ISHAPIRO=          0,
 SHAPIRO0= 0.50000000000000000     ,
 NITER_SHAP=          1,
 IHDIF=          0,
 THETAI= 0.59999999999999998     ,
 NRAMPBC=          0,
 DRAMPBC=  1.0000000000000000     ,
 NRAMP=          0,
 DRAMP=  2.1000000000000001E-002,
 NADV=          1,
 DTB_MIN=  1.0000000000000000     ,
 DTB_MAX=  5.0000000000000000     ,
 H0=  1.0000000000000000E-002,
 NCHI=          0,
 DZB_MIN= 0.50000000000000000     ,
 DZB_DECAY=  0.0000000000000000     ,
 HMIN_MAN=  1.0000000000000000     ,
 NCOR=          0,
 RLATITUDE=  46.000000000000000     ,
 CORICOEF=  0.0000000000000000     ,
 NWS=          1,
 IMPOSE_NET_FLUX=          0,
 WTIMINC=  8640000.0000000000     ,
 IWIND_FORM=         -2,
 NRAMPWIND=          0,
 DRAMPWIND=  2.0000000000000000     ,
 IWINDOFF=          0,
 IHCONSV=          0,
 ISCONSV=          0,
 ITUR=          3,
 DFV0=  1.0000000000000000E-002,
 DFH0=  1.0000000000000000E-004,
 H1_PP=  20.000000000000000     ,
 H2_PP=  50.000000000000000     ,
 VDMAX_PP1=  1.0000000000000000E-002,
 VDMAX_PP2=  1.0000000000000000E-002,
 VDMIN_PP1=  1.0000000000000001E-005,
 VDMIN_PP2=  1.0000000000000001E-005,
 TDMIN_PP1=  1.0000000000000001E-005,
 TDMIN_PP2=  1.0000000000000001E-005,
 MID="KE",
 STAB="KC",
 XLSC0= 0.10000000000000001     ,
 IBCC_MEAN=          0,
 FLAG_IC= 11*1          ,
 START_YEAR=       1994,
 START_MONTH=         10,
 START_DAY=         12,
 START_HOUR=  17.000000000000000     ,
 UTC_START=  0.0000000000000000     ,
 ITR_MET=          1,
 H_TVD=  5.0000000000000000     ,
 EPS1_TVD_IMP=  1.0000000000000000E-004,
 EPS2_TVD_IMP=  1.0000000000000000E-014,
 IP_WENO=          2,
 COURANT_WENO= 0.50000000000000000     ,
 NTD_WENO=          1,
 NQUAD=          2,
 EPSILON1=  1.0000000000000000E-003,
 EPSILON2=  1.0000000000000000E-010,
 EPSILON3=  1.0000000000000000E-025,
 IELAD_WENO=          0,
 SMALL_ELAD=  1.0000000000000000E-004,
 I_PRTNFTL_WENO=          0,
 INU_TR= 11*0          ,
 STEP_NU_TR=  86400.000000000000     ,
 VNH1=  400.00000000000000     ,
 VNH2=  401.00000000000000     ,
 VNF1=  0.0000000000000000     ,
 VNF2=  0.0000000000000000     ,
 MOITN0=         50,
 MXITN0=       1500,
 RTOL0=  9.9999999999999998E-013,
 IFLUX=          0,
 INTER_MOM=          0,
 H_BCC1=  1000000.0000000000     ,
 INU_ELEV=          0,
 INU_UV=          0,
 IHHAT=          1,
 KR_CO=          1,
 RMAXVEL=  10.000000000000000     ,
 VELMIN_BTRACK=  1.0000000000000000E-004,
 BTRACK_NUDGE=  9.0130000000000002E-003,
 IBTRACK_TEST=          0,
 IROUSE_TEST=          0,
 INUNFL=          0,
 SHOREWAFO=          0,
 IC_ELEV=          0,
 NRAMP_ELEV=          0,
 INV_ATM_BND=          0,
 PRMSL_REF=  101325.00000000000     ,
 S1_MXNBT= 0.50000000000000000     ,
 S2_MXNBT=  3.5000000000000000     ,
 IHARIND=          0,
 ICOU_ELFE_WWM=          1,
 NRAMPWAFO=          0,
 DRAMPWAFO= 0.12500000000000000     ,
 NSTEP_WWM=          1,
 HMIN_RADSTRESS=  0.0000000000000000     ,
 TURBINJ= 0.14999999999999999     ,
 IWBL=          0,
 IF_SOURCE=          0,
 NRAMP_SS=          1,
 DRAMP_SS=  2.0000000000000000     ,
 IEOS_TYPE=          0,
 IEOS_PRES=          0,
 EOS_A=-0.10000000000000001     ,
 EOS_B=  1001.0000000000000     ,
 SLR_RATE=  120.00000000000000     ,
 RHO0=  1000.0000000000000     ,
 SHW=  4184.0000000000000     ,
 ISAV=          0,
 SAV_CD=  1.1299999999999999     ,
 NSTEP_ICE=          1,
 IUNDER_DEEP=          0,
 H1_BCC=  50.000000000000000     ,
 H2_BCC=  100.00000000000000     ,
 HW_DEPTH=  1000000.0000000000     ,
 HW_RATIO= 0.50000000000000000     ,
 IBTRACK_OPENBND=          0,
 /
&SCHOUT
 IOF_HYDRO=          1, 23*0          ,          1, 15*0          ,
 IOF_WWM= 3*1          , 3*0          , 5*1          , 4*0          ,          1,
  12*0          , 2*1          ,
 IOF_GEN= 2*1          ,
 IOF_AGE= 4*1          ,
 IOF_SED= 35*1          ,
 IOF_ECO= 27*1          ,
 IOF_ICM= 60*1          ,
 IOF_COS= 20*1          ,
 IOF_FIB= 5*1          ,
 IOF_SED2D= 14*1          ,
 IOF_ICE= 10*1          ,
 IOF_ANA= 20*1          ,
 IOF_MARSH=   42017024,          0,
 NHOT=          0,
 NHOT_WRITE=       8640,
 IOUT_STA=          0,
 NSPOOL_STA=         10,
 /
